Version 4
SHEET 1 988 736
WIRE -64 32 -160 32
WIRE 416 32 256 32
WIRE -160 64 -160 32
WIRE -64 128 -64 112
WIRE 96 128 -64 128
WIRE -64 144 -64 128
WIRE 256 144 256 32
WIRE 96 192 96 128
WIRE 96 192 0 192
WIRE 192 192 96 192
WIRE -64 272 -64 240
WIRE 256 272 256 240
WIRE -64 384 -64 352
WIRE 96 384 -64 384
WIRE 256 384 256 352
WIRE 256 384 96 384
WIRE 96 496 96 384
WIRE 96 624 96 576
FLAG -160 64 0
FLAG 416 112 0
FLAG 96 624 0
SYMBOL npn 192 144 R0
WINDOW 3 56 60 Left 2
SYMATTR InstName Q1
SYMATTR Value kedibjt
SYMBOL npn 0 144 M0
WINDOW 3 56 60 Left 2
SYMATTR InstName Q2
SYMATTR Value kedibjt
SYMBOL res -80 16 R0
SYMATTR InstName R1
SYMATTR Value 2.4k
SYMBOL res 400 16 R0
SYMATTR InstName R2
SYMATTR Value 3.3k
SYMBOL res 240 256 R0
SYMATTR InstName R3
SYMATTR Value 100
SYMBOL res -80 256 R0
SYMATTR InstName R4
SYMATTR Value 100
SYMBOL voltage 96 592 R180
WINDOW 0 24 96 Left 2
WINDOW 3 24 16 Left 2
SYMATTR InstName VEE
SYMATTR Value 12
TEXT 464 560 Left 2 !.model kedibjt npn(Bf=200.VJE=0.7)
TEXT 464 520 Left 2 !.model kedibjt npn(Bf= 200, VJE=0.7)
TEXT -180 648 Left 2 !.tran 1ms
