Version 4
SHEET 1 904 680
WIRE 32 -160 32 -192
WIRE 32 -160 -144 -160
WIRE -144 -128 -144 -160
WIRE -544 -64 -544 -160
WIRE 32 32 32 -160
WIRE -368 80 -400 80
WIRE -256 80 -288 80
WIRE -144 80 -144 -48
WIRE -144 80 -192 80
WIRE -32 80 -144 80
WIRE -544 96 -544 16
WIRE 32 144 32 128
WIRE 272 144 32 144
WIRE 432 144 336 144
WIRE 528 144 432 144
WIRE 32 160 32 144
WIRE -400 176 -400 80
WIRE 432 192 432 144
WIRE -400 304 -400 256
WIRE 32 304 32 240
WIRE 432 608 432 272
FLAG -544 96 0
FLAG -544 -160 VCC
FLAG 32 -192 VCC
FLAG 32 304 0
FLAG -400 304 0
FLAG 432 608 0
FLAG 528 144 vo
SYMBOL npn -32 32 R0
SYMATTR InstName Q1
SYMATTR Value kedibjt
SYMBOL voltage -544 -80 R0
SYMATTR InstName V1
SYMATTR Value 15
SYMBOL res -160 -144 R0
SYMATTR InstName R1
SYMATTR Value 220K
SYMBOL res 16 144 R0
SYMATTR InstName RE
SYMATTR Value 1.2K
SYMBOL res -272 64 R90
WINDOW 0 0 56 VBottom 2
WINDOW 3 32 56 VTop 2
SYMATTR InstName RS
SYMATTR Value 100
SYMBOL cap -192 64 R90
WINDOW 0 0 32 VBottom 2
WINDOW 3 32 32 VTop 2
SYMATTR InstName C1
SYMATTR Value 4.7µf
SYMBOL cap 336 128 R90
WINDOW 0 0 32 VBottom 2
WINDOW 3 32 32 VTop 2
SYMATTR InstName C2
SYMATTR Value 4.7µf
SYMBOL voltage -400 160 R0
WINDOW 123 0 0 Left 0
WINDOW 39 0 0 Left 0
SYMATTR InstName vs
SYMATTR Value SINE(0 0.5 1K)
SYMBOL res 416 176 R0
SYMATTR InstName RL
SYMATTR Value 100
TEXT 256 360 Left 2 !.model kedibjt npn(Bf=200,VJE = 0.7)
TEXT -200 -264 Left 2 !.tran 5m
