Version 4
SHEET 1 880 680
WIRE 240 -32 160 -32
WIRE 400 -32 320 -32
WIRE -16 112 -96 112
WIRE 160 112 160 -32
WIRE 160 112 128 112
WIRE 240 112 160 112
WIRE 400 128 400 -32
WIRE 400 128 304 128
WIRE 432 128 400 128
WIRE 240 144 192 144
WIRE 192 192 192 144
FLAG 272 -176 +12
FLAG 96 -176 -12
FLAG 176 -176 0
FLAG 352 -176 0
FLAG 272 160 -12
FLAG 272 96 +12
FLAG 432 128 vo
FLAG 672 112 0
FLAG 672 32 Vin
FLAG 192 192 0
FLAG -96 112 Vin
SYMBOL voltage 256 -176 R270
WINDOW 123 0 0 Left 0
WINDOW 39 0 0 Left 0
SYMATTR InstName +12VS
SYMATTR Value 12
SYMBOL voltage 80 -176 R270
WINDOW 123 0 0 Left 0
WINDOW 39 0 0 Left 0
SYMATTR InstName -12VS
SYMATTR Value -12
SYMBOL OpAmps\\LT1001 272 64 R0
SYMATTR InstName OPAMP
SYMBOL voltage 672 16 R0
WINDOW 0 -32 56 VBottom 2
WINDOW 3 32 56 VTop 2
WINDOW 123 0 0 Left 0
WINDOW 39 0 0 Left 0
SYMATTR InstName Vac
SYMATTR Value PULSE(5 -5 0 500u 500u 0 1m)
SYMBOL res 336 -48 R90
WINDOW 0 0 56 VBottom 2
WINDOW 3 32 56 VTop 2
SYMATTR InstName Rf
SYMATTR Value 10k
SYMBOL res 80 96 R90
WINDOW 0 0 56 VBottom 2
WINDOW 3 32 56 VTop 2
SYMATTR InstName Ri
SYMATTR Value 1k
SYMBOL cap 128 96 R90
WINDOW 0 0 32 VBottom 2
WINDOW 3 32 32 VTop 2
SYMATTR InstName Ci
SYMATTR Value 10n
TEXT 520 -240 Left 2 !.tran 10m
