Version 4
SHEET 1 880 680
WIRE -464 64 -464 16
WIRE -320 64 -320 16
WIRE -16 80 -96 80
WIRE 144 80 64 80
WIRE 144 128 144 80
WIRE 192 128 144 128
WIRE 384 144 256 144
WIRE 192 160 144 160
WIRE -464 192 -464 144
WIRE -320 192 -320 144
WIRE -16 208 -96 208
WIRE 144 208 144 160
WIRE 144 208 64 208
FLAG -320 16 +12
FLAG -464 16 -12
FLAG -464 192 0
FLAG -320 192 0
FLAG 224 176 -12
FLAG 224 112 +12
FLAG 384 144 vo
FLAG -176 80 0
FLAG 544 128 0
FLAG 544 48 Vin
FLAG -96 208 Vin
SYMBOL voltage -320 48 R0
WINDOW 123 0 0 Left 0
WINDOW 39 0 0 Left 0
SYMATTR InstName -12VS
SYMATTR Value 12
SYMBOL voltage -464 48 R0
WINDOW 123 0 0 Left 0
WINDOW 39 0 0 Left 0
SYMATTR InstName 12VS
SYMATTR Value -12
SYMBOL OpAmps\\LT1001 224 80 R0
SYMATTR InstName OPAMP
SYMBOL res 80 64 R90
WINDOW 0 0 56 VBottom 2
WINDOW 3 32 56 VTop 2
SYMATTR InstName Ri2
SYMATTR Value 1k
SYMBOL res 80 192 R90
WINDOW 0 0 56 VBottom 2
WINDOW 3 32 56 VTop 2
SYMATTR InstName Ri1
SYMATTR Value 1k
SYMBOL voltage -80 80 R90
WINDOW 0 -32 56 VBottom 2
WINDOW 3 32 56 VTop 2
SYMATTR InstName Vdc
SYMATTR Value 1
SYMBOL voltage 544 32 R0
WINDOW 0 -32 56 VBottom 2
WINDOW 3 32 56 VTop 2
WINDOW 123 0 0 Left 0
WINDOW 39 0 0 Left 0
SYMATTR InstName Vac
SYMATTR Value PULSE(2 -2 0 500u 500u 0 1m)
TEXT -320 272 Left 2 !.tran 3m
